*SPEF "ieee 1481-1999"
*DESIGN "ripple_carry_adder_4bit"
*DATE "11:11:11 Fri 11 11, 1111"
*VENDOR "OpenRCX"
*PROGRAM "Parallel Extraction"
*VERSION "1.0"
*DESIGN_FLOW "NAME_SCOPE LOCAL" "PIN_CAP NONE"
*DIVIDER /
*DELIMITER :
*BUS_DELIMITER []
*T_UNIT 1 NS
*C_UNIT 1 PF
*R_UNIT 1 OHM
*L_UNIT 1 HENRY

*NAME_MAP
*1 A[0]
*2 A[1]
*3 A[2]
*4 A[3]
*5 B[0]
*6 B[1]
*7 B[2]
*8 B[3]
*9 Cin
*10 Cout
*11 Sum[0]
*12 Sum[1]
*13 Sum[2]
*14 Sum[3]
*17 _00_
*18 _01_
*19 _02_
*20 _03_
*21 _04_
*22 _05_
*23 _06_
*24 _07_
*25 _08_
*26 _09_
*27 _10_
*28 _11_
*29 _12_
*30 _13_
*31 _14_
*32 net1
*33 net10
*34 net11
*35 net12
*36 net13
*37 net14
*38 net2
*39 net3
*40 net4
*41 net5
*42 net6
*43 net7
*44 net8
*45 net9
*46 FILLER_0_0_14
*47 FILLER_0_0_20
*48 FILLER_0_0_29
*49 FILLER_0_0_41
*50 FILLER_0_0_51
*51 FILLER_0_0_57
*52 FILLER_0_0_6
*53 FILLER_0_10_13
*54 FILLER_0_10_20
*55 FILLER_0_10_29
*56 FILLER_0_10_3
*57 FILLER_0_10_41
*58 FILLER_0_10_48
*59 FILLER_0_10_57
*60 FILLER_0_1_18
*61 FILLER_0_1_30
*62 FILLER_0_1_42
*63 FILLER_0_1_54
*64 FILLER_0_1_57
*65 FILLER_0_1_6
*66 FILLER_0_1_61
*67 FILLER_0_2_15
*68 FILLER_0_2_27
*69 FILLER_0_2_29
*70 FILLER_0_2_3
*71 FILLER_0_2_41
*72 FILLER_0_2_53
*73 FILLER_0_2_61
*74 FILLER_0_3_15
*75 FILLER_0_3_27
*76 FILLER_0_3_3
*77 FILLER_0_3_39
*78 FILLER_0_3_47
*79 FILLER_0_3_55
*80 FILLER_0_3_60
*81 FILLER_0_4_15
*82 FILLER_0_4_27
*83 FILLER_0_4_29
*84 FILLER_0_4_3
*85 FILLER_0_4_41
*86 FILLER_0_4_58
*87 FILLER_0_5_29
*88 FILLER_0_5_3
*89 FILLER_0_5_41
*90 FILLER_0_5_54
*91 FILLER_0_5_57
*92 FILLER_0_6_29
*93 FILLER_0_6_35
*94 FILLER_0_6_53
*95 FILLER_0_6_6
*96 FILLER_0_6_61
*97 FILLER_0_7_23
*98 FILLER_0_7_3
*99 FILLER_0_7_38
*100 FILLER_0_7_50
*101 FILLER_0_7_57
*102 FILLER_0_7_61
*103 FILLER_0_7_9
*104 FILLER_0_8_15
*105 FILLER_0_8_27
*106 FILLER_0_8_29
*107 FILLER_0_8_3
*108 FILLER_0_8_41
*109 FILLER_0_8_53
*110 FILLER_0_8_61
*111 FILLER_0_9_21
*112 FILLER_0_9_33
*113 FILLER_0_9_45
*114 FILLER_0_9_53
*115 FILLER_0_9_57
*116 FILLER_0_9_61
*117 FILLER_0_9_9
*118 PHY_0
*119 PHY_1
*120 PHY_10
*121 PHY_11
*122 PHY_12
*123 PHY_13
*124 PHY_14
*125 PHY_15
*126 PHY_16
*127 PHY_17
*128 PHY_18
*129 PHY_19
*130 PHY_2
*131 PHY_20
*132 PHY_21
*133 PHY_3
*134 PHY_4
*135 PHY_5
*136 PHY_6
*137 PHY_7
*138 PHY_8
*139 PHY_9
*140 TAP_22
*141 TAP_23
*142 TAP_24
*143 TAP_25
*144 TAP_26
*145 TAP_27
*146 TAP_28
*147 TAP_29
*148 TAP_30
*149 TAP_31
*150 TAP_32
*151 TAP_33
*152 TAP_34
*153 _15_
*154 _16_
*155 _17_
*156 _18_
*157 _19_
*158 _20_
*159 _21_
*160 _22_
*161 _23_
*162 _24_
*163 _25_
*164 _26_
*165 _27_
*166 _28_
*167 _29_
*168 _30_
*169 _31_
*170 _32_
*171 _33_
*172 _34_
*173 input1
*174 input2
*175 input3
*176 input4
*177 input5
*178 input6
*179 input7
*180 input8
*181 input9
*182 output10
*183 output11
*184 output12
*185 output13
*186 output14

*PORTS
A[0] I
A[1] I
A[2] I
A[3] I
B[0] I
B[1] I
B[2] I
B[3] I
Cin I
Cout O
Sum[0] O
Sum[1] O
Sum[2] O
Sum[3] O

*D_NET *1 0.000894952
*CONN
*P A[0] I
*I *173:A I *D sky130_fd_sc_hd__clkbuf_1
*CAP
1 A[0] 0.000447476
2 *173:A 0.000447476
*RES
1 A[0] *173:A 22.7821 
*END

*D_NET *2 0.000708472
*CONN
*P A[1] I
*I *174:A I *D sky130_fd_sc_hd__buf_1
*CAP
1 A[1] 0.00030369
2 *174:A 0.00030369
3 *174:A Cout 0.000101091
*RES
1 A[1] *174:A 21.6911 
*END

*D_NET *3 0.00142439
*CONN
*P A[2] I
*I *175:A I *D sky130_fd_sc_hd__buf_1
*CAP
1 A[2] 0.000574933
2 *175:A 0.000574933
3 *175:A *180:A 0.00027452
*RES
1 A[2] *175:A 25.9429 
*END

*D_NET *4 0.000571635
*CONN
*P A[3] I
*I *176:A I *D sky130_fd_sc_hd__buf_1
*CAP
1 A[3] 0.000285817
2 *176:A 0.000285817
3 *176:A *178:A 0
4 *176:A *42:12 0
*RES
1 A[3] *176:A 20.8518 
*END

*D_NET *5 0.000536403
*CONN
*P B[0] I
*I *177:A I *D sky130_fd_sc_hd__clkbuf_1
*CAP
1 B[0] 0.000257892
2 *177:A 0.000257892
3 *177:A *156:B 0
4 *177:A *42:12 2.06178e-05
*RES
1 B[0] *177:A 18.73 
*END

*D_NET *6 0.00143417
*CONN
*P B[1] I
*I *178:A I *D sky130_fd_sc_hd__buf_1
*CAP
1 B[1] 0.000717087
2 *178:A 0.000717087
3 *176:A *178:A 0
*RES
1 B[1] *178:A 27.5857 
*END

*D_NET *7 0.000939547
*CONN
*P B[2] I
*I *179:A I *D sky130_fd_sc_hd__clkbuf_1
*CAP
1 B[2] 0.000452482
2 *179:A 0.000452482
3 *179:A *38:18 2.85321e-05
4 *179:A *43:14 6.05161e-06
*RES
1 B[2] *179:A 22.7464 
*END

*D_NET *8 0.00124508
*CONN
*P B[3] I
*I *180:A I *D sky130_fd_sc_hd__clkbuf_1
*CAP
1 B[3] 0.000485278
2 *180:A 0.000485278
3 *175:A *180:A 0.00027452
*RES
1 B[3] *180:A 24.2804 
*END

*D_NET *9 0.000930924
*CONN
*P Cin I
*I *181:A I *D sky130_fd_sc_hd__buf_1
*CAP
1 Cin 0.000465462
2 *181:A 0.000465462
*RES
1 Cin *181:A 22.7464 
*END

*D_NET *10 0.00200591
*CONN
*P Cout O
*I *182:X O *D sky130_fd_sc_hd__clkbuf_4
*CAP
1 Cout 0.000837329
2 *182:X 0.000837329
3 Cout *38:18 0.000230155
4 *174:A Cout 0.000101091
*RES
1 *182:X Cout 28.8179 
*END

*D_NET *11 0.00110962
*CONN
*P Sum[0] O
*I *183:X O *D sky130_fd_sc_hd__clkbuf_4
*CAP
1 Sum[0] 0.000540862
2 *183:X 0.000540862
3 Sum[0] *183:A 2.78962e-05
*RES
1 *183:X Sum[0] 23.1214 
*END

*D_NET *12 0.000955743
*CONN
*P Sum[1] O
*I *184:X O *D sky130_fd_sc_hd__clkbuf_4
*CAP
1 Sum[1] 0.000477871
2 *184:X 0.000477871
3 Sum[1] Sum[2] 0
*RES
1 *184:X Sum[1] 22.6018 
*END

*D_NET *13 0.00181075
*CONN
*P Sum[2] O
*I *185:X O *D sky130_fd_sc_hd__clkbuf_4
*CAP
1 Sum[2] 0.000905377
2 *185:X 0.000905377
3 Sum[1] Sum[2] 0
*RES
1 *185:X Sum[2] 30.425 
*END

*D_NET *14 0.000789802
*CONN
*P Sum[3] O
*I *186:X O *D sky130_fd_sc_hd__buf_2
*CAP
1 Sum[3] 0.000361736
2 *186:X 0.000361736
3 Sum[3] *39:12 6.63305e-05
*RES
1 *186:X Sum[3] 18.8741 
*END

*D_NET *17 0.000710241
*CONN
*I *155:A I *D sky130_fd_sc_hd__nor2_1
*I *172:B1_N I *D sky130_fd_sc_hd__o21bai_1
*I *153:X O *D sky130_fd_sc_hd__and2_1
*CAP
1 *155:A 0.000142574
2 *172:B1_N 2.4192e-05
3 *153:X 0.000119591
4 *17:10 0.000286357
5 *155:A *165:A 5.83827e-05
6 *155:A *172:A1 4.64641e-05
7 *172:B1_N *165:A 2.84026e-05
8 *17:10 *172:A2 4.27842e-06
*RES
1 *153:X *17:10 19.9429 
2 *17:10 *172:B1_N 9.83571 
3 *17:10 *155:A 12.3357 
*END

*D_NET *18 0.000662107
*CONN
*I *172:A1 I *D sky130_fd_sc_hd__o21bai_1
*I *155:B I *D sky130_fd_sc_hd__nor2_1
*I *154:Y O *D sky130_fd_sc_hd__nor2_1
*CAP
1 *172:A1 6.35843e-05
2 *155:B 0
3 *154:Y 0.000109753
4 *18:12 0.000173338
5 *172:A1 *165:A 0.000143375
6 *18:12 *39:12 0.000125593
7 *155:A *172:A1 4.64641e-05
*RES
1 *154:Y *18:12 20.4786 
2 *18:12 *155:B 9.3 
3 *18:12 *172:A1 11.5143 
*END

*D_NET *19 0.000906062
*CONN
*I *165:A I *D sky130_fd_sc_hd__xnor2_1
*I *155:Y O *D sky130_fd_sc_hd__nor2_1
*CAP
1 *165:A 0.000273192
2 *155:Y 0.000273192
3 *165:A *182:A 0.000129518
4 *155:A *165:A 5.83827e-05
5 *172:A1 *165:A 0.000143375
6 *172:B1_N *165:A 2.84026e-05
*RES
1 *155:Y *165:A 33.3857 
*END

*D_NET *20 0.00239285
*CONN
*I *166:B I *D sky130_fd_sc_hd__nand2_1
*I *158:A2 I *D sky130_fd_sc_hd__a21bo_1
*I *156:X O *D sky130_fd_sc_hd__or2_1
*CAP
1 *166:B 0.00028077
2 *158:A2 0.000359922
3 *156:X 0
4 *20:4 0.000640692
5 *158:A2 *156:B 0.000147683
6 *158:A2 *157:A 0.000221928
7 *158:A2 *169:A 1.48252e-05
8 *158:A2 *21:10 0.000186765
9 *158:A2 *24:6 0.000140088
10 *158:A2 *32:16 7.09928e-05
11 *166:B *168:A 9.97164e-05
12 *166:B *169:A 4.93964e-05
13 *166:B *169:B 9.41642e-05
14 *166:B *24:6 8.59075e-05
*RES
1 *156:X *20:4 9.3 
2 *20:4 *158:A2 26.0321 
3 *20:4 *166:B 23.0857 
*END

*D_NET *21 0.00188848
*CONN
*I *158:B1_N I *D sky130_fd_sc_hd__a21bo_1
*I *166:A I *D sky130_fd_sc_hd__nand2_1
*I *157:Y O *D sky130_fd_sc_hd__nand2_1
*CAP
1 *158:B1_N 2.09995e-05
2 *166:A 0.000287976
3 *157:Y 0.000186746
4 *21:10 0.000495722
5 *158:B1_N *167:A 2.85321e-05
6 *166:A *167:B 0.000313611
7 *166:A *168:B 0.000150043
8 *166:A *32:16 7.65336e-06
9 *166:A *45:12 0.000113962
10 *21:10 *158:A1 4.45153e-05
11 *21:10 *167:A 4.51148e-05
12 *21:10 *22:12 6.8377e-06
13 *158:A2 *21:10 0.000186765
*RES
1 *157:Y *21:10 13.2643 
2 *21:10 *166:A 24.6571 
3 *21:10 *158:B1_N 9.83571 
*END

*D_NET *22 0.00148497
*CONN
*I *161:A1 I *D sky130_fd_sc_hd__a21bo_1
*I *169:A I *D sky130_fd_sc_hd__xnor2_1
*I *158:X O *D sky130_fd_sc_hd__a21bo_1
*CAP
1 *161:A1 3.84508e-05
2 *169:A 0.000166599
3 *158:X 0.000184028
4 *22:12 0.000389078
5 *161:A1 *160:B 8.34321e-05
6 *161:A1 *161:B1_N 1.24368e-05
7 *161:A1 *168:B 1.32293e-05
8 *169:A *160:B 0.000141729
9 *169:A *161:B1_N 0.000101754
10 *169:A *168:A 1.69252e-05
11 *169:A *24:6 2.36643e-05
12 *169:A *41:10 1.8461e-05
13 *22:12 *158:A1 6.05161e-06
14 *22:12 *32:16 9.83388e-05
15 *22:12 *45:12 0.000119738
16 *158:A2 *169:A 1.48252e-05
17 *166:B *169:A 4.93964e-05
18 *21:10 *22:12 6.8377e-06
*RES
1 *158:X *22:12 21.3 
2 *22:12 *169:A 22.6393 
3 *22:12 *161:A1 10.2464 
*END

*D_NET *23 0.000842417
*CONN
*I *161:A2 I *D sky130_fd_sc_hd__a21bo_1
*I *168:B I *D sky130_fd_sc_hd__nand2_1
*I *159:X O *D sky130_fd_sc_hd__or2_1
*CAP
1 *161:A2 0
2 *168:B 0.000103513
3 *159:X 5.10634e-05
4 *23:6 0.000154576
5 *168:B *160:B 2.76499e-05
6 *168:B *161:B1_N 1.8461e-05
7 *168:B *168:A 1.8461e-05
8 *168:B *45:12 0.000147784
9 *23:6 *160:B 0.000126771
10 *23:6 *25:6 3.08664e-05
11 *161:A1 *168:B 1.32293e-05
12 *166:A *168:B 0.000150043
*RES
1 *159:X *23:6 10.6571 
2 *23:6 *168:B 21.5143 
3 *23:6 *161:A2 9.3 
*END

*D_NET *24 0.0013232
*CONN
*I *168:A I *D sky130_fd_sc_hd__nand2_1
*I *161:B1_N I *D sky130_fd_sc_hd__a21bo_1
*I *160:Y O *D sky130_fd_sc_hd__nand2_1
*CAP
1 *168:A 7.66091e-05
2 *161:B1_N 2.88303e-05
3 *160:Y 0.000118939
4 *24:6 0.000224378
5 *168:A *45:12 0.000146994
6 *24:6 *160:B 2.571e-05
7 *24:6 *41:10 0.000184325
8 *158:A2 *24:6 0.000140088
9 *161:A1 *161:B1_N 1.24368e-05
10 *166:B *168:A 9.97164e-05
11 *166:B *24:6 8.59075e-05
12 *168:B *161:B1_N 1.8461e-05
13 *168:B *168:A 1.8461e-05
14 *169:A *161:B1_N 0.000101754
15 *169:A *168:A 1.69252e-05
16 *169:A *24:6 2.36643e-05
*RES
1 *160:Y *24:6 13.1214 
2 *24:6 *161:B1_N 10.675 
3 *24:6 *168:A 20.675 
*END

*D_NET *25 0.00261741
*CONN
*I *171:A I *D sky130_fd_sc_hd__xnor2_1
*I *164:A1 I *D sky130_fd_sc_hd__a21boi_1
*I *161:X O *D sky130_fd_sc_hd__a21bo_1
*CAP
1 *171:A 0.000141886
2 *164:A1 0.000443594
3 *161:X 0.000377865
4 *25:6 0.000963344
5 *164:A1 *162:A 4.31856e-05
6 *164:A1 *163:A 0.000268558
7 *164:A1 *170:A 2.85234e-05
8 *164:A1 *170:B 1.59373e-05
9 *164:A1 *27:12 2.73126e-05
10 *171:A *171:B 3.75959e-05
11 *171:A *38:18 7.70035e-05
12 *25:6 *160:B 6.37494e-05
13 *25:6 *38:18 9.7992e-05
14 *23:6 *25:6 3.08664e-05
*RES
1 *161:X *25:6 14.3536 
2 *25:6 *164:A1 15.9964 
3 *25:6 *171:A 20.9071 
*END

*D_NET *26 0.000950977
*CONN
*I *170:B I *D sky130_fd_sc_hd__nand2_1
*I *164:A2 I *D sky130_fd_sc_hd__a21boi_1
*I *162:X O *D sky130_fd_sc_hd__or2_1
*CAP
1 *170:B 0.000133981
2 *164:A2 0
3 *162:X 8.21744e-06
4 *26:6 0.000142199
5 *170:B *162:A 4.7451e-05
6 *170:B *163:A 0.000123582
7 *170:B *163:B 0.000281015
8 *170:B *27:12 0.000112871
9 *170:B *43:14 5.46383e-06
10 *26:6 *162:A 5.65955e-05
11 *26:6 *163:B 2.36643e-05
12 *164:A1 *170:B 1.59373e-05
*RES
1 *162:X *26:6 9.83571 
2 *26:6 *164:A2 9.3 
3 *26:6 *170:B 13.9786 
*END

*D_NET *27 0.0011198
*CONN
*I *164:B1_N I *D sky130_fd_sc_hd__a21boi_1
*I *170:A I *D sky130_fd_sc_hd__nand2_1
*I *163:Y O *D sky130_fd_sc_hd__nand2_1
*CAP
1 *164:B1_N 0.000289104
2 *170:A 1.64668e-05
3 *163:Y 0.000116821
4 *27:12 0.000422392
5 *164:B1_N *163:B 6.43113e-05
6 *164:B1_N *28:12 1.39782e-05
7 *170:A *171:B 1.47872e-05
8 *27:12 *171:B 1.32293e-05
9 *164:A1 *170:A 2.85234e-05
10 *164:A1 *27:12 2.73126e-05
11 *170:B *27:12 0.000112871
*RES
1 *163:Y *27:12 11.9429 
2 *27:12 *170:A 9.83571 
3 *27:12 *164:B1_N 22.0679 
*END

*D_NET *28 0.00117148
*CONN
*I *172:A2 I *D sky130_fd_sc_hd__o21bai_1
*I *165:B I *D sky130_fd_sc_hd__xnor2_1
*I *164:Y O *D sky130_fd_sc_hd__a21boi_1
*CAP
1 *172:A2 0.000249281
2 *165:B 0
3 *164:Y 0.000259914
4 *28:12 0.000509194
5 *172:A2 *182:A 0.000124749
6 *28:12 *43:14 1.00887e-05
7 *164:B1_N *28:12 1.39782e-05
8 *17:10 *172:A2 4.27842e-06
*RES
1 *164:Y *28:12 22.6214 
2 *28:12 *165:B 9.3 
3 *28:12 *172:A2 22.6214 
*END

*D_NET *29 0.000896322
*CONN
*I *167:B I *D sky130_fd_sc_hd__xnor2_1
*I *166:Y O *D sky130_fd_sc_hd__nand2_1
*CAP
1 *167:B 0.00027715
2 *166:Y 0.00027715
3 *167:B *167:A 2.84109e-05
4 *166:A *167:B 0.000313611
*RES
1 *166:Y *167:B 33.1714 
*END

*D_NET *30 0.000243384
*CONN
*I *169:B I *D sky130_fd_sc_hd__xnor2_1
*I *168:Y O *D sky130_fd_sc_hd__nand2_1
*CAP
1 *169:B 7.46102e-05
2 *168:Y 7.46102e-05
3 *166:B *169:B 9.41642e-05
*RES
1 *168:Y *169:B 19.9571 
*END

*D_NET *31 0.00031902
*CONN
*I *171:B I *D sky130_fd_sc_hd__xnor2_1
*I *170:Y O *D sky130_fd_sc_hd__nand2_1
*CAP
1 *171:B 0.000115957
2 *170:Y 0.000115957
3 *171:B *38:18 2.14945e-05
4 *170:A *171:B 1.47872e-05
5 *171:A *171:B 3.75959e-05
6 *27:12 *171:B 1.32293e-05
*RES
1 *170:Y *171:B 29.7786 
*END

*D_NET *32 0.00228745
*CONN
*I *157:B I *D sky130_fd_sc_hd__nand2_1
*I *156:B I *D sky130_fd_sc_hd__or2_1
*I *173:X O *D sky130_fd_sc_hd__clkbuf_1
*CAP
1 *157:B 2.22847e-05
2 *156:B 0.000154421
3 *173:X 0.000765241
4 *32:16 0.000941947
5 *156:B *157:A 5.33005e-05
6 *32:16 *45:12 2.5586e-05
7 *158:A2 *156:B 0.000147683
8 *158:A2 *32:16 7.09928e-05
9 *166:A *32:16 7.65336e-06
10 *177:A *156:B 0
11 *22:12 *32:16 9.83388e-05
*RES
1 *173:X *32:16 32.2821 
2 *32:16 *156:B 21.3 
3 *32:16 *157:B 9.72857 
*END

*D_NET *33 0.00172558
*CONN
*I *182:A I *D sky130_fd_sc_hd__clkbuf_4
*I *172:Y O *D sky130_fd_sc_hd__o21bai_1
*CAP
1 *182:A 0.000735657
2 *172:Y 0.000735657
3 *165:A *182:A 0.000129518
4 *172:A2 *182:A 0.000124749
*RES
1 *172:Y *182:A 41.6179 
*END

*D_NET *34 0.00228418
*CONN
*I *183:A I *D sky130_fd_sc_hd__clkbuf_4
*I *167:Y O *D sky130_fd_sc_hd__xnor2_1
*CAP
1 *183:A 0.00112814
2 *167:Y 0.00112814
3 Sum[0] *183:A 2.78962e-05
*RES
1 *167:Y *183:A 47.2071 
*END

*D_NET *35 0.000741478
*CONN
*I *184:A I *D sky130_fd_sc_hd__clkbuf_4
*I *169:Y O *D sky130_fd_sc_hd__xnor2_1
*CAP
1 *184:A 0.000370739
2 *169:Y 0.000370739
*RES
1 *169:Y *184:A 34.4571 
*END

*D_NET *36 0.00188186
*CONN
*I *185:A I *D sky130_fd_sc_hd__clkbuf_4
*I *171:Y O *D sky130_fd_sc_hd__xnor2_1
*CAP
1 *185:A 0.000940932
2 *171:Y 0.000940932
3 *185:A *38:18 0
*RES
1 *171:Y *185:A 42.0821 
*END

*D_NET *37 0.000364497
*CONN
*I *186:A I *D sky130_fd_sc_hd__buf_2
*I *165:Y O *D sky130_fd_sc_hd__xnor2_1
*CAP
1 *186:A 0.000182249
2 *165:Y 0.000182249
*RES
1 *165:Y *186:A 21.5107 
*END

*D_NET *38 0.00499843
*CONN
*I *159:B I *D sky130_fd_sc_hd__or2_1
*I *160:B I *D sky130_fd_sc_hd__nand2_1
*I *174:X O *D sky130_fd_sc_hd__buf_1
*CAP
1 *159:B 0
2 *160:B 0.000238131
3 *174:X 0.00140324
4 *38:18 0.00164138
5 *160:B *159:A 0.000642991
6 *160:B *41:10 0.000128531
7 *38:18 *43:14 1.99379e-05
8 Cout *38:18 0.000230155
9 *161:A1 *160:B 8.34321e-05
10 *168:B *160:B 2.76499e-05
11 *169:A *160:B 0.000141729
12 *171:A *38:18 7.70035e-05
13 *171:B *38:18 2.14945e-05
14 *179:A *38:18 2.85321e-05
15 *185:A *38:18 0
16 *23:6 *160:B 0.000126771
17 *24:6 *160:B 2.571e-05
18 *25:6 *160:B 6.37494e-05
19 *25:6 *38:18 9.7992e-05
*RES
1 *174:X *38:18 42.3893 
2 *38:18 *160:B 17.925 
3 *38:18 *159:B 9.3 
*END

*D_NET *39 0.00328661
*CONN
*I *163:B I *D sky130_fd_sc_hd__nand2_1
*I *162:B I *D sky130_fd_sc_hd__or2_1
*I *175:X O *D sky130_fd_sc_hd__buf_1
*CAP
1 *163:B 0.000381096
2 *162:B 0
3 *175:X 0.000935608
4 *39:12 0.0013167
5 *163:B *162:A 3.20508e-05
6 *163:B *163:A 5.49489e-05
7 *163:B *43:14 5.28442e-06
8 *39:12 *44:12 0
9 Sum[3] *39:12 6.63305e-05
10 *164:B1_N *163:B 6.43113e-05
11 *170:B *163:B 0.000281015
12 *18:12 *39:12 0.000125593
13 *26:6 *163:B 2.36643e-05
*RES
1 *175:X *39:12 34.7821 
2 *39:12 *162:B 9.3 
3 *39:12 *163:B 25.9071 
*END

*D_NET *40 0.00348873
*CONN
*I *154:B I *D sky130_fd_sc_hd__nor2_1
*I *153:B I *D sky130_fd_sc_hd__and2_1
*I *176:X O *D sky130_fd_sc_hd__buf_1
*CAP
1 *154:B 9.32221e-05
2 *153:B 0
3 *176:X 0.00141684
4 *40:14 0.00151006
5 *154:B *154:A 0.000143375
6 *154:B *44:12 5.49544e-05
7 *40:14 *42:12 0.00027029
*RES
1 *176:X *40:14 42.2286 
2 *40:14 *153:B 9.3 
3 *40:14 *154:B 11.4786 
*END

*D_NET *41 0.00125689
*CONN
*I *156:A I *D sky130_fd_sc_hd__or2_1
*I *157:A I *D sky130_fd_sc_hd__nand2_1
*I *177:X O *D sky130_fd_sc_hd__clkbuf_1
*CAP
1 *156:A 0
2 *157:A 0.000142849
3 *177:X 0.000118792
4 *41:10 0.000261641
5 *41:10 *159:A 2.70242e-05
6 *41:10 *160:A 0.000100037
7 *156:B *157:A 5.33005e-05
8 *158:A2 *157:A 0.000221928
9 *160:B *41:10 0.000128531
10 *169:A *41:10 1.8461e-05
11 *24:6 *41:10 0.000184325
*RES
1 *177:X *41:10 13.1571 
2 *41:10 *157:A 21.0857 
3 *41:10 *156:A 9.3 
*END

*D_NET *42 0.00392276
*CONN
*I *159:A I *D sky130_fd_sc_hd__or2_1
*I *160:A I *D sky130_fd_sc_hd__nand2_1
*I *178:X O *D sky130_fd_sc_hd__buf_1
*CAP
1 *159:A 0.000633016
2 *160:A 6.20367e-05
3 *178:X 0.000735846
4 *42:12 0.0014309
5 *160:B *159:A 0.000642991
6 *176:A *42:12 0
7 *177:A *42:12 2.06178e-05
8 *40:14 *42:12 0.00027029
9 *41:10 *159:A 2.70242e-05
10 *41:10 *160:A 0.000100037
*RES
1 *178:X *42:12 32.0143 
2 *42:12 *160:A 11.3893 
3 *42:12 *159:A 18.6036 
*END

*D_NET *43 0.00222705
*CONN
*I *162:A I *D sky130_fd_sc_hd__or2_1
*I *163:A I *D sky130_fd_sc_hd__nand2_1
*I *179:X O *D sky130_fd_sc_hd__clkbuf_1
*CAP
1 *162:A 9.84683e-05
2 *163:A 7.21822e-05
3 *179:X 0.000606278
4 *43:14 0.000776928
5 *163:B *162:A 3.20508e-05
6 *163:B *163:A 5.49489e-05
7 *163:B *43:14 5.28442e-06
8 *164:A1 *162:A 4.31856e-05
9 *164:A1 *163:A 0.000268558
10 *170:B *162:A 4.7451e-05
11 *170:B *163:A 0.000123582
12 *170:B *43:14 5.46383e-06
13 *179:A *43:14 6.05161e-06
14 *26:6 *162:A 5.65955e-05
15 *28:12 *43:14 1.00887e-05
16 *38:18 *43:14 1.99379e-05
*RES
1 *179:X *43:14 28.9071 
2 *43:14 *163:A 12.3179 
3 *43:14 *162:A 11.4786 
*END

*D_NET *44 0.00123755
*CONN
*I *154:A I *D sky130_fd_sc_hd__nor2_1
*I *153:A I *D sky130_fd_sc_hd__and2_1
*I *180:X O *D sky130_fd_sc_hd__clkbuf_1
*CAP
1 *154:A 0.00014046
2 *153:A 0
3 *180:X 0.000379153
4 *44:12 0.000519613
5 *154:B *154:A 0.000143375
6 *154:B *44:12 5.49544e-05
7 *39:12 *44:12 0
*RES
1 *180:X *44:12 25.3357 
2 *44:12 *153:A 9.3 
3 *44:12 *154:A 11.9071 
*END

*D_NET *45 0.0023641
*CONN
*I *167:A I *D sky130_fd_sc_hd__xnor2_1
*I *158:A1 I *D sky130_fd_sc_hd__a21bo_1
*I *181:X O *D sky130_fd_sc_hd__buf_1
*CAP
1 *167:A 0.000198252
2 *158:A1 2.26929e-05
3 *181:X 0.000607763
4 *45:12 0.000828708
5 *158:B1_N *167:A 2.85321e-05
6 *166:A *45:12 0.000113962
7 *167:B *167:A 2.84109e-05
8 *168:A *45:12 0.000146994
9 *168:B *45:12 0.000147784
10 *21:10 *158:A1 4.45153e-05
11 *21:10 *167:A 4.51148e-05
12 *22:12 *158:A1 6.05161e-06
13 *22:12 *45:12 0.000119738
14 *32:16 *45:12 2.5586e-05
*RES
1 *181:X *45:12 30.1929 
2 *45:12 *158:A1 9.83571 
3 *45:12 *167:A 12.7464 
*END
